LTspice 24.1.9 for Windows
Circuit: C:\Users\lenov\Documents\GitHub\power_electronics-2025\Module 1 - Power Diodes and Rectifiers\Simulations\Simulations Repository\Circuit one-phase\monofasico.net
Start Time: Mon Sep 29 22:21:33 2025
solver = Normal
Maximum thread count: 12
tnom = 27
temp = 27
method = trap
C1: Increased Cpar to 2.2e-09
C2: Increased Cpar to 1e-08
.OP point found by inspection.
Total elapsed time: 0.259 seconds.

Files loaded:
C:\Users\lenov\Documents\GitHub\power_electronics-2025\Module 1 - Power Diodes and Rectifiers\Simulations\Simulations Repository\Circuit one-phase\monofasico.net
C:\Users\lenov\AppData\Local\LTspice\lib\cmp\standard.dio

