LTspice 24.1.9 for Windows
Circuit: C:\Users\lenov\Documents\GitHub\power_electronics-2025\Module 3 - DC-DC Converters (Buck & Boost)\Simulations\Buck-Elect Pot.net
Start Time: Tue Sep 23 14:24:52 2025
solver = Normal
Maximum thread count: 12
tnom = 27
temp = 27
method = trap
WARNING: Node n013 is floating.

Direct Newton iteration for .op point succeeded.
Total elapsed time: 0.178 seconds.

Files loaded:
C:\Users\lenov\Documents\GitHub\power_electronics-2025\Module 3 - DC-DC Converters (Buck & Boost)\Simulations\Buck-Elect Pot.net
C:\Users\lenov\AppData\Local\LTspice\lib\cmp\standard.dio
C:\Users\lenov\AppData\Local\LTspice\lib\cmp\standard.mos
C:\Users\lenov\AppData\Local\LTspice\lib\sub\NE555.sub

