LTspice 24.1.9 for Windows
Circuit: C:\Users\lenov\Documents\GitHub\power_electronics-2025\Module 1 - Power Diodes and Rectifiers\Simulations\Simulations Repository\Circuit three-phase\With load.net
Start Time: Sat Aug  2 14:47:27 2025
solver = Normal
Maximum thread count: 12
tnom = 27
temp = 27
method = trap
C1: Increased Cpar to 3.3e-10
Direct Newton iteration for .op point succeeded.
Total elapsed time: 0.251 seconds.

Files loaded:
C:\Users\lenov\Documents\GitHub\power_electronics-2025\Module 1 - Power Diodes and Rectifiers\Simulations\Simulations Repository\Circuit three-phase\With load.net
C:\Users\lenov\AppData\Local\LTspice\lib\cmp\standard.dio

