LTspice 24.1.9 for Windows
Circuit: C:\Users\lenov\Documents\GitHub\power_electronics-2025\Module 2 - Power Transistors (BJT, MOSFET, and IGBT)\Simulations\BJT\BJT.net
Start Time: Tue Aug 26 21:59:07 2025
C:\Users\lenov\Documents\GitHub\power_electronics-2025\Module 2 - Power Transistors (BJT, MOSFET, and IGBT)\Simulations\BJT\BJT.net(37): Ignoring unknown model parameter. This may or may not be a problem.
+ CJE=1nF CJC=400pF TF=1e-7 TR=1e-7###> + VCEsat=0.2<### VCEO=100 ICRating=25)
solver = Normal
Maximum thread count: 12
tnom = 27
temp = 27
method = trap
C1: Increased Cpar to 1e-09
.OP point found by inspection.
Total elapsed time: 0.230 seconds.

Files loaded:
C:\Users\lenov\Documents\GitHub\power_electronics-2025\Module 2 - Power Transistors (BJT, MOSFET, and IGBT)\Simulations\BJT\BJT.net
C:\Users\lenov\AppData\Local\LTspice\lib\cmp\standard.dio
C:\Users\lenov\AppData\Local\LTspice\lib\cmp\standard.bjt

