LTspice 24.1.9 for Windows
Circuit: C:\Users\lenov\Documents\GitHub\power_electronics-2025\Module 2 - Power Transistors (BJT, MOSFET, and IGBT)\Simulations\BJT\BJT.net
Start Time: Tue Sep  2 14:25:21 2025
solver = Normal
Maximum thread count: 12
tnom = 27
temp = 27
method = trap
C1: Increased Cpar to 1e-09
.OP point found by inspection.
Total elapsed time: 0.242 seconds.

Files loaded:
C:\Users\lenov\Documents\GitHub\power_electronics-2025\Module 2 - Power Transistors (BJT, MOSFET, and IGBT)\Simulations\BJT\BJT.net
C:\Users\lenov\AppData\Local\LTspice\lib\cmp\standard.dio
C:\Users\lenov\AppData\Local\LTspice\lib\cmp\standard.bjt

